Version 4
SHEET 1 1044 680
WIRE 496 -336 496 -384
WIRE 496 -336 320 -336
WIRE 320 -304 320 -336
WIRE 256 -272 144 -272
WIRE 272 -272 256 -272
WIRE 144 -240 144 -272
WIRE 496 -208 496 -336
WIRE 320 -192 320 -224
WIRE -464 -160 -464 -208
WIRE -320 -160 -320 -208
WIRE -176 -160 -176 -208
WIRE 256 -144 256 -272
WIRE 144 -128 144 -176
WIRE -464 -32 -464 -80
WIRE -320 -32 -320 -80
WIRE -176 -32 -176 -80
WIRE 496 -16 496 -128
WIRE 560 -16 496 -16
WIRE 672 -16 624 -16
WIRE 752 -16 672 -16
WIRE 496 0 496 -16
WIRE 672 32 672 -16
WIRE 144 64 112 64
WIRE 256 64 256 -64
WIRE 256 64 208 64
WIRE 320 64 256 64
WIRE 448 64 400 64
WIRE 496 160 496 80
WIRE 672 160 672 112
FLAG 112 64 W1
IOPIN 112 64 In
FLAG 496 -384 Vp
IOPIN 496 -384 In
FLAG -320 -32 0
FLAG -176 -32 0
FLAG -320 -208 W1
IOPIN -320 -208 In
FLAG -176 -208 Vp
IOPIN -176 -208 In
FLAG 496 160 0
FLAG -464 -208 Vz
IOPIN -464 -208 In
FLAG -464 -32 0
FLAG 672 160 0
FLAG 320 -192 0
FLAG 144 -128 0
SYMBOL voltage -320 -176 R0
WINDOW 3 -259 214 Left 2
WINDOW 123 0 0 Left 0
WINDOW 39 0 0 Left 0
SYMATTR Value PULSE(0 6 0 0.1p 0.1p 23.8ns 47.6ns)
SYMATTR InstName V1
SYMBOL voltage -176 -176 R0
WINDOW 123 0 0 Left 0
WINDOW 39 0 0 Left 0
SYMATTR InstName V2
SYMATTR Value 22
SYMBOL cap 208 48 R90
WINDOW 0 0 32 VBottom 2
WINDOW 3 32 32 VTop 2
SYMATTR InstName C1
SYMATTR Value 10nF
SYMBOL ind 480 -224 R0
SYMATTR InstName L1
SYMATTR Value 15µH
SYMBOL voltage -464 -176 R0
WINDOW 123 0 0 Left 0
WINDOW 39 0 0 Left 0
SYMATTR InstName V4
SYMATTR Value 0
SYMBOL res 656 16 R0
SYMATTR InstName R3
SYMATTR Value 50
SYMBOL res 416 48 R90
WINDOW 0 0 56 VBottom 2
WINDOW 3 32 56 VTop 2
SYMATTR InstName R2
SYMATTR Value 4.7
SYMBOL res 240 -160 R0
SYMATTR InstName R1
SYMATTR Value 10k
SYMBOL cap 624 -32 R90
WINDOW 0 0 32 VBottom 2
WINDOW 3 32 32 VTop 2
SYMATTR InstName C2
SYMATTR Value 100nF
SYMBOL nmos 448 -16 R0
SYMATTR InstName M1
SYMATTR Value IRF510
SYMBOL potentiometer 336 -208 R180
WINDOW 3 36 88 Left 2
SYMATTR Value Rtot=10K wiper=.17
SYMATTR InstName U1
SYMBOL cap 128 -240 R0
SYMATTR InstName C3
SYMATTR Value 100nF
TEXT -80 -360 Left 2 !.tran 1000us
