Version 4
SHEET 1 880 680
WIRE 144 -128 144 -176
WIRE 528 -128 144 -128
WIRE 528 -96 528 -128
WIRE 16 -64 0 -64
WIRE 16 -48 16 -64
WIRE 560 -32 560 -48
WIRE -736 -16 -736 -64
WIRE -592 -16 -592 -64
WIRE -448 -16 -448 -64
WIRE -304 -16 -304 -64
WIRE 144 0 144 -128
WIRE 528 16 528 -16
WIRE 736 16 528 16
WIRE 16 48 16 32
WIRE 80 48 16 48
WIRE 528 48 528 16
WIRE 736 64 736 16
WIRE 848 64 736 64
WIRE -736 112 -736 64
WIRE -592 112 -592 64
WIRE -448 112 -448 64
WIRE -304 112 -304 64
WIRE 144 128 144 96
WIRE 256 128 144 128
WIRE 416 128 336 128
WIRE 480 128 416 128
WIRE 736 128 736 64
WIRE 16 144 16 48
WIRE 144 144 144 128
WIRE 416 160 416 128
WIRE 16 256 16 224
WIRE 144 256 144 224
WIRE 144 256 16 256
WIRE 416 256 416 240
WIRE 416 256 144 256
WIRE 528 256 528 144
WIRE 528 256 416 256
WIRE 736 256 736 192
WIRE 736 256 528 256
WIRE 144 272 144 256
FLAG -48 48 W1
IOPIN -48 48 In
FLAG 144 -176 Vp
IOPIN 144 -176 In
FLAG -592 112 0
FLAG -448 112 0
FLAG -592 -64 W1
IOPIN -592 -64 In
FLAG -448 -64 Vp
IOPIN -448 -64 In
FLAG 144 272 0
FLAG -304 112 0
FLAG -304 -64 Vb
IOPIN -304 -64 In
FLAG 0 -64 Vp
IOPIN 0 -64 In
FLAG -736 -64 Vz
IOPIN -736 -64 In
FLAG -736 112 0
SYMBOL npn 80 0 R0
SYMATTR InstName Q1
SYMATTR Value 2N3904
SYMBOL res 128 128 R0
SYMATTR InstName R2
SYMATTR Value 85
SYMBOL voltage -592 -32 R0
WINDOW 3 -259 214 Left 2
WINDOW 123 0 0 Left 0
WINDOW 39 0 0 Left 0
SYMATTR Value PULSE(0 6 0 0.1p 0.1p 35ns 70ns)
SYMATTR InstName V1
SYMBOL voltage -448 -32 R0
WINDOW 123 0 0 Left 0
WINDOW 39 0 0 Left 0
SYMATTR InstName V2
SYMATTR Value 12
SYMBOL voltage -304 -32 R0
WINDOW 123 0 0 Left 0
WINDOW 39 0 0 Left 0
SYMATTR InstName V3
SYMATTR Value 6
SYMBOL res 0 -64 R0
SYMATTR InstName RV1
SYMATTR Value 700
SYMBOL res 0 128 R0
SYMATTR InstName R1
SYMATTR Value 1k
SYMBOL res 352 112 R90
WINDOW 0 0 56 VBottom 2
WINDOW 3 32 56 VTop 2
SYMATTR InstName R3
SYMATTR Value 3.3
SYMBOL res 400 144 R0
SYMATTR InstName R4
SYMATTR Value 47
SYMBOL cap 16 32 R90
WINDOW 0 0 32 VBottom 2
WINDOW 3 32 32 VTop 2
SYMATTR InstName C1
SYMATTR Value 10nF
SYMBOL ind 512 -112 R0
SYMATTR InstName L1
SYMATTR Value 0.8µH
SYMBOL cap 720 128 R0
SYMATTR InstName C2
SYMATTR Value 47pF
SYMBOL voltage -736 -32 R0
WINDOW 123 0 0 Left 0
WINDOW 39 0 0 Left 0
SYMATTR InstName V4
SYMATTR Value 0
SYMBOL nmos 480 48 R0
SYMATTR InstName M1
SYMATTR Value RD16HHF1
TEXT -160 336 Left 2 !.tran 100us
TEXT -96 -296 Left 2 ;Emitter Follower @ 14 MHz. Paul. Swing doesn't fit in 3-to-8v range fully!
TEXT 56 336 Left 2 !.include RD16HHF1.txt
